*SPEF "IEEE 1481-1998"
*DESIGN "des"
*DATE "Tue Jul 29 17:03:24 2025"
*VENDOR "Cadence Design Systems, Inc."
*PROGRAM "Innovus"
*VERSION "21.38-e095_1"
*DESIGN_FLOW "PIN_CAP NONE" "NAME_SCOPE LOCAL"
*DIVIDER /
*DELIMITER :
*BUS_DELIMITER []
*T_UNIT 1 NS
*C_UNIT 1 PF
*R_UNIT 1 OHM
*L_UNIT 1 HENRY

// MMMC spef file for corner 'Cmax'

*NAME_MAP

*1 clk
*2 reset
*3 load_i
*4 decrypt_i
*5 data_i[63]
*6 data_i[62]
*7 data_i[61]
*8 data_i[60]
*9 data_i[59]
*10 data_i[58]
*11 data_i[57]
*12 data_i[56]
*13 data_i[55]
*14 data_i[54]
*15 data_i[53]
*16 data_i[52]
*17 data_i[51]
*18 data_i[50]
*19 data_i[49]
*20 data_i[48]
*21 data_i[47]
*22 data_i[46]
*23 data_i[45]
*24 data_i[44]
*25 data_i[43]
*26 data_i[42]
*27 data_i[41]
*28 data_i[40]
*29 data_i[39]
*30 data_i[38]
*31 data_i[37]
*32 data_i[36]
*33 data_i[35]
*34 data_i[34]
*35 data_i[33]
*36 data_i[32]
*37 data_i[31]
*38 data_i[30]
*39 data_i[29]
*40 data_i[28]
*41 data_i[27]
*42 data_i[26]
*43 data_i[25]
*44 data_i[24]
*45 data_i[23]
*46 data_i[22]
*47 data_i[21]
*48 data_i[20]
*49 data_i[19]
*50 data_i[18]
*51 data_i[17]
*52 data_i[16]
*53 data_i[15]
*54 data_i[14]
*55 data_i[13]
*56 data_i[12]
*57 data_i[11]
*58 data_i[10]
*59 data_i[9]
*60 data_i[8]
*61 data_i[7]
*62 data_i[6]
*63 data_i[5]
*64 data_i[4]
*65 data_i[3]
*66 data_i[2]
*67 data_i[1]
*68 data_i[0]
*69 key_i[63]
*70 key_i[62]
*71 key_i[61]
*72 key_i[60]
*73 key_i[59]
*74 key_i[58]
*75 key_i[57]
*76 key_i[55]
*77 key_i[54]
*78 key_i[53]
*79 key_i[52]
*80 key_i[51]
*81 key_i[50]
*82 key_i[49]
*83 key_i[47]
*84 key_i[46]
*85 key_i[45]
*86 key_i[44]
*87 key_i[43]
*88 key_i[42]
*89 key_i[41]
*90 key_i[39]
*91 key_i[38]
*92 key_i[37]
*93 key_i[36]
*94 key_i[35]
*95 key_i[34]
*96 key_i[33]
*97 key_i[31]
*98 key_i[30]
*99 key_i[29]
*100 key_i[28]
*101 key_i[27]
*102 key_i[26]
*103 key_i[25]
*104 key_i[23]
*105 key_i[22]
*106 key_i[21]
*107 key_i[20]
*108 key_i[19]
*109 key_i[18]
*110 key_i[17]
*111 key_i[15]
*112 key_i[14]
*113 key_i[13]
*114 key_i[12]
*115 key_i[11]
*116 key_i[10]
*117 key_i[9]
*118 key_i[7]
*119 key_i[6]
*120 key_i[5]
*121 key_i[4]
*122 key_i[3]
*123 key_i[2]
*124 key_i[1]
*125 data_o[63]
*126 data_o[62]
*127 data_o[61]
*128 data_o[60]
*129 data_o[59]
*130 data_o[58]
*131 data_o[57]
*132 data_o[56]
*133 data_o[55]
*134 data_o[54]
*135 data_o[53]
*136 data_o[52]
*137 data_o[51]
*138 data_o[50]
*139 data_o[49]
*140 data_o[48]
*141 data_o[47]
*142 data_o[46]
*143 data_o[45]
*144 data_o[44]
*145 data_o[43]
*146 data_o[42]
*147 data_o[41]
*148 data_o[40]
*149 data_o[39]
*150 data_o[38]
*151 data_o[37]
*152 data_o[36]
*153 data_o[35]
*154 data_o[34]
*155 data_o[33]
*156 data_o[32]
*157 data_o[31]
*158 data_o[30]
*159 data_o[29]
*160 data_o[28]
*161 data_o[27]
*162 data_o[26]
*163 data_o[25]
*164 data_o[24]
*165 data_o[23]
*166 data_o[22]
*167 data_o[21]
*168 data_o[20]
*169 data_o[19]
*170 data_o[18]
*171 data_o[17]
*172 data_o[16]
*173 data_o[15]
*174 data_o[14]
*175 data_o[13]
*176 data_o[12]
*177 data_o[11]
*178 data_o[10]
*179 data_o[9]
*180 data_o[8]
*181 data_o[7]
*182 data_o[6]
*183 data_o[5]
*184 data_o[4]
*185 data_o[3]
*186 data_o[2]
*187 data_o[1]
*188 data_o[0]
*189 ready_o
*190 FE_OFN13213_data_o_62
*191 FE_OFN13211_ready_o
*192 FE_OFN13209_data_o_48
*193 FE_OFN13207_data_o_29
*194 FE_OFN13205_data_o_26
*195 FE_OFN13203_data_o_51
*196 FE_OFN13201_data_o_13
*197 FE_OFN13199_data_o_59
*198 FE_OFN13197_data_o_8
*199 FE_OFN13195_data_o_34
*200 FE_OFN13193_data_o_46
*201 FE_OFN13191_data_o_49
*202 FE_OFN13189_data_o_16
*203 FE_OFN13187_data_o_20
*204 FE_OFN13185_data_o_27
*205 FE_OFN13183_data_o_38
*206 FE_OFN13181_data_o_11
*207 FE_OFN13179_data_o_45
*208 FE_OFN13177_data_o_61
*209 FE_OFN13175_data_o_47
*210 FE_OFN13173_data_o_12
*211 FE_OFN13171_data_o_23
*212 FE_OFN13169_data_o_55
*213 FE_OFN13167_data_o_15
*214 FE_OFN13165_data_o_33
*215 FE_OFN13163_data_o_35
*216 FE_OFN13161_data_o_7
*217 FE_OFN13159_data_o_21
*218 FE_OFN13157_data_o_60
*219 FE_OFN13155_data_o_19
*220 FE_OFN13153_data_o_63
*221 FE_OFN13151_data_o_2
*222 FE_OFN13149_data_o_54
*223 FE_OFN13147_data_o_30
*224 FE_OFN13145_data_o_40
*225 FE_OFN13143_data_o_31
*226 FE_OFN13141_data_o_9
*227 FE_OFN13139_data_o_3
*228 FE_OFN13137_data_o_56
*229 FE_OFN13135_data_o_1
*230 FE_OFN13133_data_o_22
*231 FE_OFN13131_data_o_44
*232 FE_OFN13129_data_o_39
*233 FE_OFN13127_data_o_18
*234 FE_OFN13125_data_o_28
*235 FE_OFN13123_data_o_10
*236 FE_OFN13121_data_o_58
*237 FE_OFN13119_data_o_17
*238 FE_OFN13117_data_o_32
*239 FE_OFN13115_data_o_50
*240 FE_OFN13113_data_o_37
*241 FE_OFN13111_data_o_41
*242 FE_OFN13109_data_o_25
*243 FE_OFN13107_data_o_43
*244 FE_OFN13105_data_o_5
*245 FE_OFN13103_data_o_42
*246 FE_OFN13101_data_o_57
*247 FE_OFN13099_data_o_52
*248 FE_OFN13097_data_o_6
*249 FE_OFN13095_data_o_53
*250 FE_OFN13093_data_o_36
*251 FE_OFN13091_data_o_24
*252 FE_OFN13090_n_568
*253 FE_OFN13089_FE_OCPN118_n_12445
*254 FE_OFN13088_FE_OCPN118_n_12445
*255 FE_OCPN13087_FE_DBTN45_n_980
*256 FE_OCPN455_n_18147
*257 FE_RN_84
*258 FE_RN_83
*259 FE_OCPN13086_n_846
*260 FE_OCPN13085_n_846
*261 FE_OCPN454_n_15865
*262 FE_RN_82
*263 FE_RN_81
*264 FE_OCPN13084_n_12994
*265 FE_RN_80
*266 FE_RN_79
*267 FE_RN_78
*268 FE_RN_77
*269 FE_OCPN13083_n_8119
*270 FE_OCPN13082_FE_OFN51_n_12937
*271 FE_OCPN13081_stage1_iter_0
*272 FE_OCPN13080_stage1_iter_0
*273 FE_OCPN13079_FE_OFN85_n_12937
*274 FE_OCPN13078_FE_OFN85_n_12937
*275 FE_OCPN13077_n
*276 FE_OCPN13076_n
*277 FE_RN_76
*278 FE_RN_75
*279 FE_RN_74
*280 FE_OCPN13075_n_13998
*281 FE_OCPN13074_n_4332
*282 FE_OCPN450_stage1_iter_1
*283 FE_OCPN13073_n
*284 FE_RN_73
*285 FE_OCPN13072_n_12937
*286 FE_OCPN13071_n_12937
*287 FE_OCPN13070_n_12937
*288 FE_OCPN13069_n_12937
*289 FE_RN_72
*290 FE_OCPN13068_FE_OFN82_n_12937
*291 FE_RN_71
*292 FE_RN_70
*293 FE_RN_69
*294 FE_RN_68
*295 FE_RN_67
*296 FE_RN_66
*297 FE_OCPN13067_n_18600
*298 FE_OCPN13066_FE_OFN88_n_12937
*299 FE_RN_65
*300 FE_RN_64
*301 FE_RN_63
*302 FE_RN_62
*303 FE_RN_61
*304 FE_RN_60
*305 FE_RN_59
*306 FE_RN_58
*307 FE_RN_57
*308 FE_OCPN13065_n_12048
*309 FE_RN_56
*310 FE_RN_55
*311 FE_RN_54
*312 FE_OCPN448_n_4637
*313 FE_OCPN447_n_16513
*314 FE_RN_53
*315 FE_RN_52
*316 FE_OCPN13064_FE_DBTN22_n_16162
*317 FE_RN_51
*318 FE_RN_50
*319 FE_RN_49
*320 FE_OCPN13063_n
*321 FE_RN_48
*322 FE_RN_47
*323 FE_OCPN13062_FE_DBTN17_n_4461
*324 FE_OCPN13061_FE_DBTN47_n_20017
*325 FE_OCPN13060_FE_DBTN4_n_14147
*326 FE_OCPN13059_FE_DBTN8_n_12531
*327 FE_OCPN13058_FE_OFN84_n_12937
*328 FE_OCPN13057_FE_OFN84_n_12937
*329 FE_OCPN13056_n_848
*330 FE_OCPN438_n_4180
*331 FE_OCPN13055_n_12994
*332 FE_OCPN13054_n_13584
*333 FE_OCPN437_n_2957
*334 FE_RN_46
*335 FE_OCPN436_n_19461
*336 FE_OCPN435_FE_OFN87_n_12937
*337 FE_RN_45
*338 FE_OCPN13053_FE_DBTN41_n_930
*339 FE_OCPN13052_n_12965
*340 FE_OCPN13051_n_4750
*341 FE_RN_44
*342 FE_OCPN13050_n_910
*343 FE_OCPN433_n_13056
*344 FE_RN_43
*345 FE_OCPN13049_n_9615
*346 FE_RN_42
*347 FE_OCPN432_n_8474
*348 FE_OCPN431_FE_OFN88_n_12937
*349 FE_OCPN430_FE_OFN50_FE_DBTN20_n_12937
*350 FE_OCPN429_FE_OFN93_n_12937
*351 FE_OCPN13048_FE_DBTN26_n_4340
*352 FE_RN_41
*353 FE_RN_40
*354 FE_RN_39
*355 FE_RN_38
*356 FE_OCPN428_FE_RN_23
*357 FE_RN_37
*358 FE_RN_36
*359 FE_RN_35
*360 FE_RN_34
*361 FE_RN_33
*362 FE_RN_32
*363 FE_RN_31
*364 FE_RN_30
*365 FE_RN_29
*366 FE_RN_28
*367 FE_RN_27
*368 FE_OCPN427_n_16671
*369 FE_RN_26
*370 FE_RN_25
*371 FE_RN_24
*372 FE_RN_23
*373 FE_RN_22
*374 FE_RN_21
*375 FE_RN_20
*376 FE_RN_19
*377 FE_RN_18
*378 FE_RN_17
*379 FE_RN_16
*380 FE_RN_15
*381 FE_RN_14
*382 FE_RN_13
*383 FE_RN_12
*384 FE_RN_11
*385 FE_RN_10
*386 FE_RN_9
*387 FE_RN_8
*388 FE_OCPN423_n_4638
*389 FE_RN_7
*390 FE_OCPN13047_FE_OFN87_n_12937
*391 FE_RN_6
*392 FE_OCPN13046_FE_DBTN14_n_9055
*393 FE_OCPN421_n_9615
*394 FE_OCPN417_n
*395 FE_OCPN416_n_2950
*396 FE_OCPN415_n_2560
*397 FE_OCPN414_n_20022
*398 FE_OCPN413_FE_DBTN13_n_8609
*399 FE_OCPN410_n_19465
*400 FE_OCPN407_n_7091
*401 FE_OCPN406_n_14188
*402 FE_OCPN405_n_7807
*403 FE_OCPN404_n_19492
*404 FE_OCPN403_n_18600
*405 FE_OCPN402_n_14981
*406 FE_OCPN401_n_7573
*407 FE_OCPN400_stage1_iter_3
*408 FE_RN_5
*409 FE_OCPN398_n_4638
*410 FE_OCPN394_n_19491
*411 FE_OCPN393_n_2957
*412 FE_OCPN390_n_4651
*413 FE_OCPN389_n_2329
*414 FE_OCPN388_n_15824
*415 FE_OCPN387_FE_DBTN27_n_12047
*416 FE_OCPN386_n_8559
*417 FE_OCPN382_n_3092
*418 FE_OCPN381_n_7871
*419 FE_OCPN380_n_8672
*420 FE_OCPN379_n_12047
*421 FE_OCPN378_n_4130
*422 FE_OCPN374_FE_OFN80_n_1156
*423 FE_OCPN368_n_789
*424 FE_OCPN367_FE_DBTN18_n_14989
*425 FE_OCPN365_n_14203
*426 FE_OCPN363_n_714
*427 FE_OCPN362_n_18147
*428 FE_OCPN361_n_18598
*429 FE_OCPN360_n_14930
*430 FE_OCPN359_n_3970
*431 FE_OCPN357_n_4460
*432 FE_OCPN356_n_16633
*433 FE_OCPN353_n_1156
*434 FE_OCPN352_n_15019
*435 FE_OCPN13045_n_16162
*436 FE_RN_4
*437 FE_OCPN13044_n_19231
*438 FE_OCPN13043_n_2472
*439 FE_OCPN350_FE_DBTN53_stage1_iter_1
*440 FE_OCPN13042_n_14147
*441 FE_OCPN13041_n_7672
*442 FE_OCPN13040_n_19481
*443 FE_OCPN13039_n_1050
*444 FE_OCPN13038_n_8117
*445 FE_OCPN13037_n_871
*446 FE_OCPN347_n_16160
*447 FE_OCPN13036_n_980
*448 FE_OCPN13035_n_12531
*449 FE_OCPN13034_n_12006
*450 FE_OCPN13033_n_8594
*451 FE_OCPN342_n_18593
*452 FE_OCPN340_n_4638
*453 FE_OCPN339_n_808
*454 FE_OCPN338_n_1859
*455 FE_OCPN336_n_910
*456 FE_OCPN335_n_8609
*457 FE_OCPN334_n_18146
*458 FE_RN_3
*459 FE_RN_2
*460 FE_OCPN331_n_8117
*461 FE_OCPN330_n_831
*462 FE_OCPN329_n_14989
*463 FE_OCPN327_FE_OFN93_n_12937
*464 FE_OCPN323_FE_DBTN13_n_8609
*465 FE_RN_1
*466 FE_OCPN322_stage1_iter_2
*467 FE_OCPN13031_n_16798
*468 FE_OCPN13030_n_13414
*469 FE_OCPN13028_n_1050
*470 FE_OCPN13027_n_12996
*471 FE_OCPN13026_n_7811
*472 FE_OCPN13025_n_1934
*473 FE_OCPN13024_n_3969
*474 FE_OCPN13023_n
*475 FE_OCPN13022_n
*476 FE_OCPN121_n_16672
*477 FE_OCPN120_n_15027
*478 FE_OCPN118_n_12445
*479 FE_OCPN117_n_8558
*480 FE_OCPN116_n_7670
*481 FE_OCPN115_n_3972
*482 FE_OCPN114_n_16675
*483 FE_OCPN113_n_1131
*484 FE_OCPN112_n_3568
*485 FE_OCPN111_n_8558
*486 FE_OCPN110_n_9458
*487 FE_OCPN109_n_871
*488 FE_OCPN108_n_16142
*489 FE_OCPN106_n_15819
*490 FE_OCPN105_n_7671
*491 FE_OCPN104_n_20017
*492 FE_OCPN103_n_3568
*493 FE_OCPN102_n_12047
*494 FE_OCPN100_n_19492
*495 FE_OCPN99_n_13021
*496 FE_OCPN98_n_9055
*497 FE_OCPN97_n_19492
*498 FE_OCPN96_n_7723
*499 FE_OFN318_data_o_45
*500 FE_OFN316_data_o_61
*501 FE_OFN314_data_o_48
*502 FE_OFN312_data_o_11
*503 FE_OFN310_ready_o
*504 FE_OFN308_data_o_13
*505 FE_OFN306_data_o_8
*506 FE_OFN304_data_o_14
*507 FE_OFN302_data_o_29
*508 FE_OFN300_data_o_34
*509 FE_OFN298_data_o_62
*510 FE_OFN296_data_o_51
*511 FE_OFN294_data_o_16
*512 FE_OFN292_data_o_49
*513 FE_OFN290_data_o_46
*514 FE_OFN288_data_o_59
*515 FE_OFN286_data_o_26
*516 FE_OFN284_data_o_20
*517 FE_RN_0_0
*518 FE_OFN95_stage1_iter_3
*519 FE_OFN94_n_4332
*520 FE_OFN93_n_12937
*521 FE_OFN90_n_12937
*522 FE_OFN89_n_12937
*523 FE_OFN88_n_12937
*524 FE_OFN87_n_12937
*525 FE_OFN86_n_12937
*526 FE_OFN85_n_12937
*527 FE_OFN84_n_12937
*528 FE_OFN83_n_12937
*529 FE_OFN82_n_12937
*530 FE_OFN81_stage1_round_key_o_6
*531 FE_OFN80_n_1156
*532 FE_OFN79_n_8609
*533 FE_OFN77_stage1_iter_3
*534 FE_OFN76_n_3711
*535 FE_OFN75_n_4340
*536 FE_OFN74_n_980
*537 FE_OFN73_n_16672
*538 FE_OFN72_n_1050
*539 FE_OFN71_n_16141
*540 FE_OFN70_n_15819
*541 FE_OFN68_n_16672
*542 FE_OFN65_stage1_round_key_o_8
*543 FE_OFN64_n_4461
*544 FE_OFN63_n_4461
*545 FE_OFN62_n_4461
*546 FE_OFN61_n_4461
*547 FE_OFN60_n_4461
*548 FE_OFN58_n_4521
*549 FE_OFN57_n_12976
*550 FE_OFN56_n_8609
*551 FE_OFN55_n_18595
*552 FE_OFN54_n_18595
*553 FE_OFN53_reset
*554 FE_OFN52_n_12937
*555 FE_OFN51_n_12937
*556 FE_OFN50_FE_DBTN20_n_12937
*557 FE_OFN49_n_12937
*558 FE_OFN48_data_o_0
*559 FE_OFN47_data_o_1
*560 FE_OFN46_data_o_2
*561 FE_OFN45_data_o_3
*562 FE_OFN44_data_o_4
*563 FE_OFN43_data_o_5
*564 FE_OFN42_data_o_6
*565 FE_OFN41_data_o_7
*566 FE_OFN40_data_o_9
*567 FE_OFN39_data_o_10
*568 FE_OFN38_data_o_12
*569 FE_OFN37_data_o_15
*570 FE_OFN36_data_o_17
*571 FE_OFN35_data_o_18
*572 FE_OFN34_data_o_19
*573 FE_OFN33_data_o_21
*574 FE_OFN32_data_o_22
*575 FE_OFN31_data_o_23
*576 FE_OFN30_data_o_24
*577 FE_OFN29_data_o_25
*578 FE_OFN28_data_o_27
*579 FE_OFN27_data_o_28
*580 FE_OFN26_data_o_30
*581 FE_OFN25_data_o_31
*582 FE_OFN24_data_o_32
*583 FE_OFN23_data_o_33
*584 FE_OFN22_data_o_35
*585 FE_OFN21_data_o_36
*586 FE_OFN20_data_o_37
*587 FE_OFN19_data_o_38
*588 FE_OFN18_data_o_39
*589 FE_OFN17_data_o_40
*590 FE_OFN16_data_o_41
*591 FE_OFN15_data_o_42
*592 FE_OFN14_data_o_43
*593 FE_OFN13_data_o_44
*594 FE_OFN12_data_o_47
*595 FE_OFN11_data_o_50
*596 FE_OFN10_data_o_52
*597 FE_OFN9_data_o_53
*598 FE_OFN8_data_o_54
*599 FE_OFN7_data_o_55
*600 FE_OFN6_data_o_56
*601 FE_OFN5_data_o_57
*602 FE_OFN4_data_o_58
*603 FE_OFN3_data_o_60
*604 FE_OFN2_data_o_63
*605 FE_OFN1_reset
*606 FE_OFN0_reset
*607 FE_DBTN53_stage1_iter_1
*608 FE_DBTN52_stage1_iter_0
*609 FE_DBTN50_n_14927
*610 FE_DBTN49_n_4332
*611 FE_DBTN48_n_1050
*612 FE_DBTN47_n_20017
*613 FE_DBTN46_n_2957
*614 FE_DBTN45_n_980
*615 FE_DBTN44_n_7670
*616 FE_DBTN43_n_16141
*617 FE_DBTN42_n_910
*618 FE_DBTN41_n_930
*619 FE_DBTN40_n_13021
*620 FE_DBTN39_n_1061
*621 FE_DBTN38_n_1112
*622 FE_DBTN37_n_1156
*623 FE_DBTN36_n_16672
*624 FE_DBTN35_n_13414
*625 FE_DBTN34_n_16675
*626 FE_DBTN33_n_7280
*627 FE_DBTN32_n_16142
*628 FE_DBTN31_n_13584
*629 FE_DBTN30_n_12006
*630 FE_DBTN29_n_2472
*631 FE_DBTN28_n_4638
*632 FE_DBTN27_n_12047
*633 FE_DBTN26_n_4340
*634 FE_DBTN25_n_3972
*635 FE_DBTN24_n_2950
*636 FE_DBTN23_n_7811
*637 FE_DBTN22_n_16162
*638 FE_DBTN21_n_18147
*639 FE_DBTN20_n_12937
*640 FE_DBTN19_n_4162
*641 FE_DBTN18_n_14989
*642 FE_DBTN17_n_4461
*643 FE_DBTN16_n_4651
*644 FE_DBTN15_n_7671
*645 FE_DBTN14_n_9055
*646 FE_DBTN13_n_8609
*647 FE_DBTN12_n_9458
*648 FE_DBTN11_n_9615
*649 FE_DBTN10_n_11884
*650 FE_DBTN8_n_12531
*651 FE_DBTN7_n_12994
*652 FE_DBTN6_n_15819
*653 FE_DBTN5_n_16798
*654 FE_DBTN4_n_14147
*655 FE_DBTN3_n_14292
*656 FE_DBTN2_n_15824
*657 FE_DBTN1_n_18595
*658 FE_DBTN0_n_19481
*659 stage1_R_o[31]
*660 stage1_R_o[30]
*661 stage1_R_o[29]
*662 stage1_R_o[28]
*663 stage1_R_o[27]
*664 stage1_R_o[26]
*665 stage1_R_o[25]
*666 stage1_R_o[24]
*667 stage1_R_o[23]
*668 stage1_R_o[22]
*669 stage1_R_o[21]
*670 stage1_R_o[20]
*671 stage1_R_o[19]
*672 stage1_R_o[18]
*673 stage1_R_o[17]
*674 stage1_R_o[16]
*675 stage1_R_o[15]
*676 stage1_R_o[14]
*677 stage1_R_o[13]
*678 stage1_R_o[12]
*679 stage1_R_o[11]
*680 stage1_R_o[10]
*681 stage1_R_o[9]
*682 stage1_R_o[8]
*683 stage1_R_o[7]
*684 stage1_R_o[6]
*685 stage1_R_o[5]
*686 stage1_R_o[4]
*687 stage1_R_o[3]
*688 stage1_R_o[2]
*689 stage1_R_o[1]
*690 stage1_R_o[0]
*691 stage1_round_key_o[55]
*692 stage1_round_key_o[54]
*693 stage1_round_key_o[53]
*694 stage1_round_key_o[52]
*695 stage1_round_key_o[51]
*696 stage1_round_key_o[50]
*697 stage1_round_key_o[49]
*698 stage1_round_key_o[48]
*699 stage1_round_key_o[47]
*700 stage1_round_key_o[46]
*701 stage1_round_key_o[45]
*702 stage1_round_key_o[44]
*703 stage1_round_key_o[43]
*704 stage1_round_key_o[42]
*705 stage1_round_key_o[41]
*706 stage1_round_key_o[40]
*707 stage1_round_key_o[39]
*708 stage1_round_key_o[38]
*709 stage1_round_key_o[37]
*710 stage1_round_key_o[36]
*711 stage1_round_key_o[35]
*712 stage1_round_key_o[34]
*713 stage1_round_key_o[33]
*714 stage1_round_key_o[32]
*715 stage1_round_key_o[31]
*716 stage1_round_key_o[30]
*717 stage1_round_key_o[29]
*718 stage1_round_key_o[28]
*719 stage1_round_key_o[27]
*720 stage1_round_key_o[26]
*721 stage1_round_key_o[25]
*722 stage1_round_key_o[24]
*723 stage1_round_key_o[23]
*724 stage1_round_key_o[22]
*725 stage1_round_key_o[21]
*726 stage1_round_key_o[20]
*727 stage1_round_key_o[19]
*728 stage1_round_key_o[18]
*729 stage1_round_key_o[17]
*730 stage1_round_key_o[16]
*731 stage1_round_key_o[15]
*732 stage1_round_key_o[14]
*733 stage1_round_key_o[13]
*734 stage1_round_key_o[12]
*735 stage1_round_key_o[11]
*736 stage1_round_key_o[10]
*737 stage1_round_key_o[9]
*738 stage1_round_key_o[8]
*739 stage1_round_key_o[7]
*740 stage1_round_key_o[6]
*741 stage1_round_key_o[5]
*742 stage1_round_key_o[4]
*743 stage1_round_key_o[3]
*744 stage1_round_key_o[2]
*745 stage1_round_key_o[1]
*746 stage1_round_key_o[0]
*747 stage1_iter[3]
*748 stage1_iter[2]
*749 stage1_iter[1]
*750 stage1_iter[0]
*751 stage1_L_o[31]
*752 stage1_L_o[30]
*753 stage1_L_o[29]
*754 stage1_L_o[28]
*755 stage1_L_o[27]
*756 stage1_L_o[26]
*757 stage1_L_o[25]
*758 stage1_L_o[24]
*759 stage1_L_o[23]
*760 stage1_L_o[22]
*761 stage1_L_o[21]
*762 stage1_L_o[20]
*763 stage1_L_o[19]
*764 stage1_L_o[18]
*765 stage1_L_o[17]
*766 stage1_L_o[16]
*767 stage1_L_o[15]
*768 stage1_L_o[14]
*769 stage1_L_o[13]
*770 stage1_L_o[12]
*771 stage1_L_o[11]
*772 stage1_L_o[10]
*773 stage1_L_o[9]
*774 stage1_L_o[8]
*775 stage1_L_o[7]
*776 stage1_L_o[6]
*777 stage1_L_o[5]
*778 stage1_L_o[4]
*779 stage1_L_o[3]
*780 stage1_L_o[2]
*781 stage1_L_o[1]
*782 stage1_L_o[0]
*783 data_ready
*784 n_0
*785 n_1
*786 n_2
*787 n_3
*788 n_4
*789 n_5
*790 n_6
*791 n_7
*792 n_9
*793 n_10
*794 n_11
*795 n_12
*796 n_13
*797 n_14
*798 n_15
*799 n_16
*800 n_17
*801 n_18
*802 n_19
*803 n_20
*804 n_21
*805 n_22
*806 n_23
*807 n_24
*808 n_25
*809 n_26
*810 n_27
*811 n_28
*812 n_29
*813 n_30
*814 n_32
*815 n_33
*816 n_34
*817 n_35
*818 n_36
*819 n_37
*820 n_38
*821 n_39
*822 n_40
*823 n_41
*824 n_42
*825 n_43
*826 n_44
*827 n_46
*828 n_47
*829 n_48
*830 n_50
*831 n_51
*832 n_52
*833 n_53
*834 n_54
*835 n_57
*836 n_58
*837 n_59
*838 n_60
*839 n_61
*840 n_62
*841 n_63
*842 n_64
*843 n_65
*844 n_66
*845 n_67
*846 n_68
*847 n_69
*848 n_70
*849 n_71
*850 n_72
*851 n_73
*852 n_74
*853 n_75
*854 n_76
*855 n_78
*856 n_79
*857 n_80
*858 n_88
*859 n_91
*860 n_93
*861 n_96
*862 n_97
*863 n_101
*864 n_103
*865 n_105
*866 n_128
*867 n_130
*868 n_133
*869 n_161
*870 n_171
*871 n_190
*872 n_216
*873 n_224
*874 n_225
*875 n_226
*876 n_238
*877 n_247
*878 n_257
*879 n_265
*880 n_269
*881 n_270
*882 n_271
*883 n_272
*884 n_288
*885 n_289
*886 n_290
*887 n_291
*888 n_293
*889 n_301
*890 n_304
*891 n_305
*892 n_311
*893 n_312
*894 n_314
*895 n_324
*896 n_326
*897 n_330
*898 n_332
*899 n_349
*900 n_350
*901 n_355
*902 n_363
*903 n_364
*904 n_374
*905 n_375
*906 n_385
*907 n_389
*908 n_409
*909 n_414
*910 n_416
*911 n_418
*912 n_422
*913 n_440
*914 n_452
*915 n_454
*916 n_455
*917 n_457
*918 n_463
*919 n_468
*920 n_469
*921 n_470
*922 n_474
*923 n_475
*924 n_477
*925 n_478
*926 n_486
*927 n_499
*928 n_500
*929 n_512
*930 n_523
*931 n_532
*932 n_536
*933 n_544
*934 n_545
*935 n_560
*936 n_561
*937 n_562
*938 n_564
*939 n_568
*940 n_578
*941 n_589
*942 n_595
*943 n_616
*944 n_622
*945 n_623
*946 n_625
*947 n_626
*948 n_627
*949 n_631
*950 n_635
*951 n_637
*952 n_638
*953 n_643
*954 n_644
*955 n_648
*956 n_649
*957 n_651
*958 n_654
*959 n_655
*960 n_656
*961 n_657
*962 n_658
*963 n_659
*964 n_661
*965 n_662
*966 n_668
*967 n_670
*968 n_671
*969 n_672
*970 n_673
*971 n_674
*972 n_678
*973 n_679
*974 n_680
*975 n_681
*976 n_683
*977 n_685
*978 n_686
*979 n_687
*980 n_691
*981 n_692
*982 n_693
*983 n_695
*984 n_697
*985 n_698
*986 n_699
*987 n_701
*988 n_706
*989 n_711
*990 n_714
*991 n_715
*992 n_719
*993 n_720
*994 n_722
*995 n_723
*996 n_725
*997 n_726
*998 n_728
*999 n_730
*1000 n_734
*1001 n_736
*1002 n_739
*1003 n_740
*1004 n_742
*1005 n_744
*1006 n_745
*1007 n_750
*1008 n_751
*1009 n_752
*1010 n_764
*1011 n_765
*1012 n_769
*1013 n_770
*1014 n_771
*1015 n_773
*1016 n_777
*1017 n_782
*1018 n_783
*1019 n_788
*1020 n_789
*1021 n_790
*1022 n_797
*1023 n_799
*1024 n_800
*1025 n_802
*1026 n_804
*1027 n_808
*1028 n_809
*1029 n_813
*1030 n_815
*1031 n_816
*1032 n_821
*1033 n_822
*1034 n_828
*1035 n_831
*1036 n_832
*1037 n_834
*1038 n_846
*1039 n_848
*1040 n_853
*1041 n_854
*1042 n_858
*1043 n_860
*1044 n_861
*1045 n_871
*1046 n_883
*1047 n_884
*1048 n_910
*1049 n_913
*1050 n_916
*1051 n_918
*1052 n_920
*1053 n_930
*1054 n_965
*1055 n_980
*1056 n_982
*1057 n_983
*1058 n_984
*1059 n_985
*1060 n_987
*1061 n_989
*1062 n_993
*1063 n_995
*1064 n_996
*1065 n_999
*1066 n_1000
*1067 n_1021
*1068 n_1023
*1069 n_1024
*1070 n_1041
*1071 n_1043
*1072 n_1050
*1073 n_1061
*1074 n_1069
*1075 n_1072
*1076 n_1073
*1077 n_1074
*1078 n_1076
*1079 n_1077
*1080 n_1079
*1081 n_1081
*1082 n_1084
*1083 n_1094
*1084 n_1095
*1085 n_1096
*1086 n_1097
*1087 n_1106
*1088 n_1107
*1089 n_1109
*1090 n_1111
*1091 n_1112
*1092 n_1130
*1093 n_1131
*1094 n_1140
*1095 n_1149
*1096 n_1154
*1097 n_1155
*1098 n_1156
*1099 n_1158
*1100 n_1159
*1101 n_1161
*1102 n_1164
*1103 n_1167
*1104 n_1168
*1105 n_1170
*1106 n_1171
*1107 n_1176
*1108 n_1177
*1109 n_1179
*1110 n_1181
*1111 n_1182
*1112 n_1183
*1113 n_1191
*1114 n_1198
*1115 n_1205
*1116 n_1207
*1117 n_1216
*1118 n_1218
*1119 n_1220
*1120 n_1224
*1121 n_1226
*1122 n_1228
*1123 n_1234
*1124 n_1237
*1125 n_1238
*1126 n_1249
*1127 n_1251
*1128 n_1252
*1129 n_1253
*1130 n_1255
*1131 n_1256
*1132 n_1258
*1133 n_1261
*1134 n_1262
*1135 n_1263
*1136 n_1264
*1137 n_1265
*1138 n_1267
*1139 n_1268
*1140 n_1269
*1141 n_1271
*1142 n_1273
*1143 n_1274
*1144 n_1276
*1145 n_1287
*1146 n_1290
*1147 n_1292
*1148 n_1304
*1149 n_1305
*1150 n_1306
*1151 n_1316
*1152 n_1318
*1153 n_1323
*1154 n_1324
*1155 n_1327
*1156 n_1328
*1157 n_1331
*1158 n_1336
*1159 n_1338
*1160 n_1347
*1161 n_1349
*1162 n_1351
*1163 n_1353
*1164 n_1356
*1165 n_1357
*1166 n_1363
*1167 n_1372
*1168 n_1373
*1169 n_1380
*1170 n_1381
*1171 n_1382
*1172 n_1386
*1173 n_1392
*1174 n_1395
*1175 n_1398
*1176 n_1402
*1177 n_1404
*1178 n_1410
*1179 n_1412
*1180 n_1414
*1181 n_1417
*1182 n_1420
*1183 n_1421
*1184 n_1422
*1185 n_1423
*1186 n_1425
*1187 n_1426
*1188 n_1429
*1189 n_1430
*1190 n_1432
*1191 n_1436
*1192 n_1437
*1193 n_1440
*1194 n_1445
*1195 n_1446
*1196 n_1447
*1197 n_1449
*1198 n_1451
*1199 n_1453
*1200 n_1456
*1201 n_1457
*1202 n_1460
*1203 n_1461
*1204 n_1462
*1205 n_1463
*1206 n_1466
*1207 n_1470
*1208 n_1473
*1209 n_1474
*1210 n_1479
*1211 n_1481
*1212 n_1488
*1213 n_1489
*1214 n_1493
*1215 n_1495
*1216 n_1509
*1217 n_1510
*1218 n_1511
*1219 n_1512
*1220 n_1513
*1221 n_1514
*1222 n_1527
*1223 n_1530
*1224 n_1536
*1225 n_1537
*1226 n_1538
*1227 n_1539
*1228 n_1545
*1229 n_1547
*1230 n_1549
*1231 n_1550
*1232 n_1551
*1233 n_1556
*1234 n_1568
*1235 n_1572
*1236 n_1573
*1237 n_1574
*1238 n_1580
*1239 n_1582
*1240 n_1587
*1241 n_1588
*1242 n_1590
*1243 n_1591
*1244 n_1599
*1245 n_1600
*1246 n_1603
*1247 n_1612
*1248 n_1614
*1249 n_1619
*1250 n_1621
*1251 n_1626
*1252 n_1629
*1253 n_1630
*1254 n_1635
*1255 n_1637
*1256 n_1643
*1257 n_1648
*1258 n_1649
*1259 n_1650
*1260 n_1655
*1261 n_1659
*1262 n_1663
*1263 n_1667
*1264 n_1669
*1265 n_1670
*1266 n_1676
*1267 n_1689
*1268 n_1690
*1269 n_1698
*1270 n_1699
*1271 n_1707
*1272 n_1708
*1273 n_1711
*1274 n_1719
*1275 n_1721
*1276 n_1723
*1277 n_1724
*1278 n_1728
*1279 n_1730
*1280 n_1731
*1281 n_1734
*1282 n_1735
*1283 n_1746
*1284 n_1751
*1285 n_1753
*1286 n_1756
*1287 n_1757
*1288 n_1760
*1289 n_1763
*1290 n_1767
*1291 n_1768
*1292 n_1769
*1293 n_1770
*1294 n_1771
*1295 n_1774
*1296 n_1775
*1297 n_1779
*1298 n_1787
*1299 n_1790
*1300 n_1792
*1301 n_1794
*1302 n_1796
*1303 n_1803
*1304 n_1811
*1305 n_1812
*1306 n_1815
*1307 n_1816
*1308 n_1827
*1309 n_1828
*1310 n_1831
*1311 n_1832
*1312 n_1833
*1313 n_1841
*1314 n_1854
*1315 n_1859
*1316 n_1870
*1317 n_1871
*1318 n_1874
*1319 n_1876
*1320 n_1891
*1321 n_1894
*1322 n_1922
*1323 n_1923
*1324 n_1925
*1325 n_1933
*1326 n_1934
*1327 n_1935
*1328 n_1936
*1329 n_1940
*1330 n_1941
*1331 n_1943
*1332 n_1959
*1333 n_1973
*1334 n_1977
*1335 n_1979
*1336 n_1987
*1337 n_1993
*1338 n_1997
*1339 n_1998
*1340 n_2000
*1341 n_2006
*1342 n_2007
*1343 n_2219
*1344 n_2309
*1345 n_2329
*1346 n_2472
*1347 n_2560
*1348 n_2588
*1349 n_2602
*1350 n_2619
*1351 n_2658
*1352 n_2679
*1353 n_2694
*1354 n_2710
*1355 n_2902
*1356 n_2935
*1357 n_2945
*1358 n_2947
*1359 n_2948
*1360 n_2949
*1361 n_2950
*1362 n_2954
*1363 n_2957
*1364 n_2967
*1365 n_2969
*1366 n_2972
*1367 n_2974
*1368 n_2977
*1369 n_2984
*1370 n_2985
*1371 n_3005
*1372 n_3030
*1373 n_3037
*1374 n_3051
*1375 n_3052
*1376 n_3053
*1377 n_3054
*1378 n_3055
*1379 n_3057
*1380 n_3079
*1381 n_3085
*1382 n_3092
*1383 n_3101
*1384 n_3102
*1385 n_3112
*1386 n_3116
*1387 n_3118
*1388 n_3123
*1389 n_3348
*1390 n_3350
*1391 n_3351
*1392 n_3488
*1393 n_3489
*1394 n_3498
*1395 n_3499
*1396 n_3501
*1397 n_3512
*1398 n_3519
*1399 n_3549
*1400 n_3568
*1401 n_3578
*1402 n_3582
*1403 n_3583
*1404 n_3584
*1405 n_3586
*1406 n_3590
*1407 n_3592
*1408 n_3595
*1409 n_3625
*1410 n_3626
*1411 n_3644
*1412 n_3645
*1413 n_3646
*1414 n_3647
*1415 n_3651
*1416 n_3653
*1417 n_3654
*1418 n_3656
*1419 n_3659
*1420 n_3660
*1421 n_3666
*1422 n_3677
*1423 n_3678
*1424 n_3679
*1425 n_3680
*1426 n_3693
*1427 n_3702
*1428 n_3703
*1429 n_3704
*1430 n_3706
*1431 n_3711
*1432 n_3713
*1433 n_3716
*1434 n_3717
*1435 n_3718
*1436 n_3728
*1437 n_3729
*1438 n_3730
*1439 n_3745
*1440 n_3752
*1441 n_3753
*1442 n_3754
*1443 n_3761
*1444 n_3762
*1445 n_3763
*1446 n_3764
*1447 n_3765
*1448 n_3766
*1449 n_3801
*1450 n_3813
*1451 n_3816
*1452 n_3830
*1453 n_3838
*1454 n_3840
*1455 n_3845
*1456 n_3850
*1457 n_3851
*1458 n_3858
*1459 n_3863
*1460 n_3866
*1461 n_3874
*1462 n_3878
*1463 n_3897
*1464 n_3939
*1465 n_3947
*1466 n_3954
*1467 n_3956
*1468 n_3959
*1469 n_3963
*1470 n_3964
*1471 n_3967
*1472 n_3969
*1473 n_3970
*1474 n_3972
*1475 n_3973
*1476 n_3987
*1477 n_4006
*1478 n_4008
*1479 n_4009
*1480 n_4010
*1481 n_4013
*1482 n_4014
*1483 n_4015
*1484 n_4016
*1485 n_4035
*1486 n_4036
*1487 n_4061
*1488 n_4064
*1489 n_4067
*1490 n_4070
*1491 n_4076
*1492 n_4091
*1493 n_4094
*1494 n_4099
*1495 n_4100
*1496 n_4122
*1497 n_4124
*1498 n_4125
*1499 n_4128
*1500 n_4130
*1501 n_4142
*1502 n_4150
*1503 n_4162
*1504 n_4166
*1505 n_4175
*1506 n_4176
*1507 n_4178
*1508 n_4180
*1509 n_4191
*1510 n_4195
*1511 n_4196
*1512 n_4197
*1513 n_4198
*1514 n_4199
*1515 n_4200
*1516 n_4201
*1517 n_4229
*1518 n_4230
*1519 n_4234
*1520 n_4235
*1521 n_4237
*1522 n_4238
*1523 n_4241
*1524 n_4242
*1525 n_4264
*1526 n_4267
*1527 n_4271
*1528 n_4272
*1529 n_4273
*1530 n_4289
*1531 n_4290
*1532 n_4292
*1533 n_4295
*1534 n_4301
*1535 n_4303
*1536 n_4304
*1537 n_4305
*1538 n_4306
*1539 n_4314
*1540 n_4332
*1541 n_4336
*1542 n_4337
*1543 n_4338
*1544 n_4339
*1545 n_4340
*1546 n_4344
*1547 n_4347
*1548 n_4352
*1549 n_4354
*1550 n_4356
*1551 n_4359
*1552 n_4360
*1553 n_4377
*1554 n_4380
*1555 n_4386
*1556 n_4387
*1557 n_4392
*1558 n_4404
*1559 n_4408
*1560 n_4410
*1561 n_4412
*1562 n_4416
*1563 n_4418
*1564 n_4419
*1565 n_4423
*1566 n_4424
*1567 n_4426
*1568 n_4428
*1569 n_4429
*1570 n_4430
*1571 n_4436
*1572 n_4438
*1573 n_4439
*1574 n_4456
*1575 n_4457
*1576 n_4458
*1577 n_4460
*1578 n_4461
*1579 n_4462
*1580 n_4464
*1581 n_4482
*1582 n_4483
*1583 n_4484
*1584 n_4485
*1585 n_4489
*1586 n_4519
*1587 n_4520
*1588 n_4521
*1589 n_4522
*1590 n_4528
*1591 n_4529
*1592 n_4531
*1593 n_4532
*1594 n_4536
*1595 n_4537
*1596 n_4637
*1597 n_4638
*1598 n_4651
*1599 n_4653
*1600 n_4657
*1601 n_4664
*1602 n_4668
*1603 n_4694
*1604 n_4697
*1605 n_4713
*1606 n_4715
*1607 n_4718
*1608 n_4719
*1609 n_4750
*1610 n_4752
*1611 n_4754
*1612 n_4755
*1613 n_4757
*1614 n_4788
*1615 n_4794
*1616 n_4796
*1617 n_6524
*1618 n_6525
*1619 n_6526
*1620 n_6545
*1621 n_6563
*1622 n_6565
*1623 n_6566
*1624 n_6574
*1625 n_6608
*1626 n_6610
*1627 n_6611
*1628 n_6626
*1629 n_6661
*1630 n_6672
*1631 n_6689
*1632 n_6690
*1633 n_6694
*1634 n_6697
*1635 n_6771
*1636 n_6772
*1637 n_6775
*1638 n_6776
*1639 n_6777
*1640 n_6897
*1641 n_6918
*1642 n_6929
*1643 n_6965
*1644 n_6966
*1645 n_6969
*1646 n_6970
*1647 n_6973
*1648 n_6974
*1649 n_6975
*1650 n_6976
*1651 n_6986
*1652 n_6997
*1653 n_7008
*1654 n_7009
*1655 n_7039
*1656 n_7080
*1657 n_7090
*1658 n_7091
*1659 n_7094
*1660 n_7103
*1661 n_7105
*1662 n_7106
*1663 n_7129
*1664 n_7131
*1665 n_7134
*1666 n_7135
*1667 n_7169
*1668 n_7208
*1669 n_7210
*1670 n_7211
*1671 n_7264
*1672 n_7279
*1673 n_7280
*1674 n_7283
*1675 n_7293
*1676 n_7344
*1677 n_7349
*1678 n_7351
*1679 n_7442
*1680 n_7445
*1681 n_7446
*1682 n_7469
*1683 n_7470
*1684 n_7481
*1685 n_7482
*1686 n_7483
*1687 n_7484
*1688 n_7486
*1689 n_7490
*1690 n_7494
*1691 n_7512
*1692 n_7569
*1693 n_7570
*1694 n_7573
*1695 n_7576
*1696 n_7577
*1697 n_7578
*1698 n_7580
*1699 n_7582
*1700 n_7583
*1701 n_7670
*1702 n_7671
*1703 n_7672
*1704 n_7674
*1705 n_7677
*1706 n_7712
*1707 n_7713
*1708 n_7714
*1709 n_7716
*1710 n_7723
*1711 n_7726
*1712 n_7727
*1713 n_7728
*1714 n_7729
*1715 n_7732
*1716 n_7761
*1717 n_7763
*1718 n_7767
*1719 n_7770
*1720 n_7771
*1721 n_7772
*1722 n_7773
*1723 n_7774
*1724 n_7790
*1725 n_7793
*1726 n_7799
*1727 n_7800
*1728 n_7804
*1729 n_7806
*1730 n_7807
*1731 n_7811
*1732 n_7813
*1733 n_7814
*1734 n_7817
*1735 n_7855
*1736 n_7856
*1737 n_7857
*1738 n_7860
*1739 n_7871
*1740 n_7879
*1741 n_7881
*1742 n_7889
*1743 n_7892
*1744 n_7893
*1745 n_7896
*1746 n_7897
*1747 n_7898
*1748 n_7901
*1749 n_7902
*1750 n_7903
*1751 n_7905
*1752 n_7906
*1753 n_7907
*1754 n_7951
*1755 n_7955
*1756 n_7982
*1757 n_7983
*1758 n_8008
*1759 n_8057
*1760 n_8113
*1761 n_8114
*1762 n_8115
*1763 n_8116
*1764 n_8117
*1765 n_8118
*1766 n_8119
*1767 n_8216
*1768 n_8219
*1769 n_8278
*1770 n_8322
*1771 n_8373
*1772 n_8376
*1773 n_8418
*1774 n_8427
*1775 n_8433
*1776 n_8434
*1777 n_8457
*1778 n_8458
*1779 n_8460
*1780 n_8462
*1781 n_8463
*1782 n_8464
*1783 n_8465
*1784 n_8467
*1785 n_8473
*1786 n_8474
*1787 n_8475
*1788 n_8476
*1789 n_8481
*1790 n_8490
*1791 n_8491
*1792 n_8492
*1793 n_8493
*1794 n_8494
*1795 n_8495
*1796 n_8502
*1797 n_8530
*1798 n_8534
*1799 n_8535
*1800 n_8537
*1801 n_8538
*1802 n_8541
*1803 n_8543
*1804 n_8545
*1805 n_8554
*1806 n_8555
*1807 n_8558
*1808 n_8559
*1809 n_8563
*1810 n_8569
*1811 n_8576
*1812 n_8577
*1813 n_8579
*1814 n_8581
*1815 n_8584
*1816 n_8585
*1817 n_8594
*1818 n_8595
*1819 n_8596
*1820 n_8597
*1821 n_8598
*1822 n_8599
*1823 n_8601
*1824 n_8606
*1825 n_8607
*1826 n_8609
*1827 n_8616
*1828 n_8618
*1829 n_8635
*1830 n_8636
*1831 n_8638
*1832 n_8639
*1833 n_8645
*1834 n_8646
*1835 n_8647
*1836 n_8649
*1837 n_8663
*1838 n_8665
*1839 n_8668
*1840 n_8672